@<TRIPOS>MOLECULE
/home/chenty/abacust_mem/src/inference/npys/all_lig/9IVK_chainA/lig_A_KY6_301_1.pdb
 26 28 0 0 0
SMALL
GASTEIGER

@<TRIPOS>ATOM
      1  C10      111.0000  113.6920   75.6300 C.ar  301  KY6301      0.0070
      2  C11      111.3180  112.6850   76.5000 C.ar  301  KY6301      0.0301
      3  C12      110.7910  112.6250   77.8650 C.2   301  KY6301      0.0167
      4  C13      110.8710  111.6750   78.8370 C.2   301  KY6301      0.0689
      5  C14      111.6000  110.4760   78.5230 C.1   301  KY6301      0.1004
      6  C16      110.2780  111.7360   80.2170 C.ar  301  KY6301      0.0097
      7  C17      110.4230  110.6870   81.1370 C.ar  301  KY6301      0.0014
      8  C18      109.8710  110.7490   82.4130 C.ar  301  KY6301      0.0103
      9  C19      109.1610  111.8740   82.8030 C.ar  301  KY6301      0.0684
     10  C20      108.5870  111.9470   84.1270 C.1   301  KY6301      0.1004
     11  C01      114.7940  111.6230   70.7870 C.3   301  KY6301      0.1123
     12  C03      113.2580  113.0840   69.4460 C.3   301  KY6301      0.1266
     13  C04      114.0880  114.3420   69.1100 C.3   301  KY6301      0.2034
     14  C06      112.9440  112.8570   71.9430 C.ar  301  KY6301      0.0485
     15  C07      112.1330  114.0220   72.0230 C.ar  301  KY6301      0.0146
     16  C08      111.4600  114.3490   73.1910 C.ar  301  KY6301      0.0018
     17  C09      111.6000  113.5260   74.3240 C.ar  301  KY6301      0.0066
     18  C22      109.0060  112.9310   81.9210 C.ar  301  KY6301      0.0103
     19  C23      109.5600  112.8570   80.6500 C.ar  301  KY6301      0.0014
     20  C25      112.4040  112.3840   74.2560 C.ar  301  KY6301      0.0307
     21  C26      113.0780  112.0310   73.0940 C.ar  301  KY6301      0.0210
     22  N02      113.6210  112.5320   70.7630 N.pl3 301  KY6301     -0.3033
     23  N15      112.1900  109.5230   78.2780 N.1   301  KY6301     -0.1908
     24  N21      108.1440  112.0430   85.1780 N.1   301  KY6301     -0.1908
     25  O05      113.8380  114.8380   67.7830 O.3   301  KY6301     -0.2185
     26  S24      112.4180  111.5370   75.7670 S.2   301  KY6301     -0.0869
@<TRIPOS>BOND
     1    25    13    1
     2    13    12    1
     3    12    22    1
     4    22    11    1
     5    22    14    1
     6    14    15   ar
     7    14    21   ar
     8    15    16   ar
     9    21    20   ar
    10    16    17   ar
    11    20    17   ar
    12    20    26   ar
    13    17     1   ar
    14     1     2   ar
    15    26     2   ar
    16     2     3    1
    17     3     4    2
    18    23     5    3
    19     5     4    1
    20     4     6    1
    21     6    19   ar
    22     6     7   ar
    23    19    18   ar
    24     7     8   ar
    25    18     9   ar
    26     8     9   ar
    27     9    10    1
    28    10    24    3
