/home/chenty/abacust_mem/src/inference/npys/all_lig/4LDE/lig_A_1WV_1403_3.pdb
 OpenBabel03192610383D

 15 14  0  0  1  0  0  0  0  0999 V2000
  -13.7820  -21.4360  -50.3640 C   0  0  0  0  0  0  0  0  0  0  0  0
  -12.6080  -20.4640  -53.9460 C   0  0  0  0  0  0  0  0  0  0  0  0
  -13.0320  -21.6880  -57.4960 C   0  0  0  0  0  0  0  0  0  0  0  0
  -14.2000  -22.7400  -59.4840 C   0  0  0  0  0  0  0  0  0  0  0  0
  -13.8180  -22.0820  -46.7150 C   0  0  0  0  0  0  0  0  0  0  0  0
  -14.5220  -21.8290  -47.8890 C   0  0  0  0  0  0  0  0  0  0  0  0
  -13.9410  -20.8780  -48.9540 C   0  0  0  0  0  0  0  0  0  0  0  0
  -13.1520  -20.5480  -51.4280 C   0  0  0  0  0  0  0  0  0  0  0  0
  -12.5870  -21.2230  -52.6440 C   0  0  0  0  0  0  0  0  0  0  0  0
  -12.3940  -21.2330  -55.2030 C   0  0  0  0  0  0  0  0  0  0  0  0
  -11.8880  -22.3190  -55.1420 O   0  0  0  0  0  0  0  0  0  0  0  0
  -13.0560  -20.8500  -56.3640 O   0  0  0  0  0  0  0  0  0  0  0  0
  -14.2500  -21.7030  -58.3790 C   0  0  2  0  0  0  0  0  0  0  0  0
  -14.6820  -20.4660  -58.7800 O   0  0  0  0  0  0  0  0  0  0  0  0
  -14.6430  -24.0140  -59.1840 O   0  0  0  0  0  0  0  0  0  0  0  0
  1  7  1  0  0  0  0
  2  9  2  0  0  0  0
  3 12  1  0  0  0  0
  4 15  1  0  0  0  0
  4 13  1  0  0  0  0
  6  5  1  0  0  0  0
  7  6  1  0  0  0  0
  8  1  2  0  0  0  0
  9  8  1  0  0  0  0
 10 11  2  0  0  0  0
 10  2  1  0  0  0  0
 12 10  1  0  0  0  0
 13 14  1  6  0  0  0
 13  3  1  0  0  0  0
M  END
$$$$
