@<TRIPOS>MOLECULE
/home/chenty/abacust_mem/src/inference/npys/all_lig/4LDE/lig_A_1WV_1403_3.pdb
 15 14 0 0 0
SMALL
GASTEIGER

@<TRIPOS>ATOM
      1  C10      -13.7820  -21.4360  -50.3640 C.2   1403  1WV1403    -0.0261
      2  C13      -12.6080  -20.4640  -53.9460 C.2   1403  1WV1403     0.0819
      3  C17      -13.0320  -21.6880  -57.4960 C.3   1403  1WV1403     0.2441
      4  C20      -14.2000  -22.7400  -59.4840 C.3   1403  1WV1403     0.2187
      5  C07      -13.8180  -22.0820  -46.7150 C.3   1403  1WV1403     0.0004
      6  C08      -14.5220  -21.8290  -47.8890 C.3   1403  1WV1403     0.0047
      7  C09      -13.9410  -20.8780  -48.9540 C.3   1403  1WV1403     0.0260
      8  C11      -13.1520  -20.5480  -51.4280 C.2   1403  1WV1403    -0.0044
      9  C12      -12.5870  -21.2230  -52.6440 C.2   1403  1WV1403     0.0063
     10  C14      -12.3940  -21.2330  -55.2030 C.2   1403  1WV1403     0.3415
     11  O15      -11.8880  -22.3190  -55.1420 O.2   1403  1WV1403    -0.2449
     12  O16      -13.0560  -20.8500  -56.3640 O.3   1403  1WV1403    -0.4425
     13  C18      -14.2500  -21.7030  -58.3790 C.3   1403  1WV1403     0.2282
     14  O19      -14.6820  -20.4660  -58.7800 O.3   1403  1WV1403    -0.2163
     15  O21      -14.6430  -24.0140  -59.1840 O.3   1403  1WV1403    -0.2174
@<TRIPOS>BOND
     1     4    15    1
     2     4    13    1
     3    14    13    1
     4    13     3    1
     5     3    12    1
     6    12    10    1
     7    10    11    2
     8    10     2    1
     9     2     9    2
    10     9     8    1
    11     8     1    2
    12     1     7    1
    13     7     6    1
    14     6     5    1
