/home/chenty/abacust_mem/src/inference/npys/all_lig/4LDE/lig_A_P0G_1401_1.pdb
 OpenBabel03192610383D

 27 29  0  0  1  0  0  0  0  0999 V2000
   -6.3930  -10.9150  -54.3170 C   0  0  0  0  0  0  0  0  0  0  0  0
   -4.1990  -10.9320  -51.5830 C   0  0  0  0  0  0  0  0  0  0  0  0
   -3.6790  -13.2360  -52.3870 C   0  0  0  0  0  0  0  0  0  0  0  0
    3.3130  -13.7080  -50.6370 O   0  0  0  0  0  0  0  0  0  0  0  0
    2.3100  -12.0060  -46.3940 O   0  0  0  0  0  0  0  0  0  0  0  0
   -3.6560  -13.7040  -47.5430 O   0  0  0  0  0  0  0  0  0  0  0  0
   -6.8570  -14.4100  -55.6420 C   0  0  0  0  0  0  0  0  0  0  0  0
   -6.7100  -15.1850  -54.4970 C   0  0  0  0  0  0  0  0  0  0  0  0
   -6.7550  -13.0270  -55.5730 C   0  0  0  0  0  0  0  0  0  0  0  0
   -6.4670  -14.5730  -53.2810 C   0  0  0  0  0  0  0  0  0  0  0  0
   -0.0430  -12.3510  -46.1340 C   0  0  0  0  0  0  0  0  0  0  0  0
   -1.2710  -12.7100  -46.6820 C   0  0  0  0  0  0  0  0  0  0  0  0
    0.9630  -14.1150  -50.6270 C   0  0  0  0  0  0  0  0  0  0  0  0
   -3.2180  -12.3390  -49.4480 C   0  0  0  0  0  0  0  0  0  0  0  0
   -6.0810  -12.5560  -51.8590 C   0  0  0  0  0  0  0  0  0  0  0  0
   -4.4080  -12.8010  -50.1310 N   0  0  0  0  0  0  0  0  0  0  0  0
    2.1330  -12.7220  -49.0170 N   0  0  0  0  0  0  0  0  0  0  0  0
   -0.1890  -13.4310  -50.1220 O   0  0  0  0  0  0  0  0  0  0  0  0
    2.2400  -13.4960  -50.0930 C   0  0  0  0  0  0  0  0  0  0  0  0
   -6.5020  -12.4160  -54.3540 C   0  0  0  0  0  0  0  0  0  0  0  0
    1.1030  -12.3570  -46.9210 C   0  0  0  0  0  0  0  0  0  0  0  0
   -6.3450  -13.1880  -53.2080 C   0  0  0  0  0  0  0  0  0  0  0  0
   -1.3630  -13.0760  -48.0200 C   0  0  0  0  0  0  0  0  0  0  0  0
    1.0190  -12.7270  -48.2480 C   0  0  0  0  0  0  0  0  0  0  0  0
   -0.2010  -13.0860  -48.7970 C   0  0  0  0  0  0  0  0  0  0  0  0
   -2.6870  -13.4640  -48.5770 C   0  0  1  0  0  0  0  0  0  0  0  0
   -4.6010  -12.4000  -51.5080 C   0  0  0  0  0  0  0  0  0  0  0  0
  2 27  1  0  0  0  0
  3 27  1  0  0  0  0
  4 19  2  0  0  0  0
  7  9  2  0  0  0  0
  7  8  1  0  0  0  0
  8 10  2  0  0  0  0
  9 20  1  0  0  0  0
 10 22  1  0  0  0  0
 12 11  1  0  0  0  0
 13 18  1  0  0  0  0
 13 19  1  0  0  0  0
 14 26  1  0  0  0  0
 15 27  1  0  0  0  0
 16 14  1  0  0  0  0
 17 24  1  0  0  0  0
 18 25  1  0  0  0  0
 19 17  1  0  0  0  0
 20  1  1  0  0  0  0
 20 22  2  0  0  0  0
 21  5  1  0  0  0  0
 21 11  2  0  0  0  0
 22 15  1  0  0  0  0
 23 12  2  0  0  0  0
 24 21  1  0  0  0  0
 25 24  2  0  0  0  0
 25 23  1  0  0  0  0
 26 23  1  0  0  0  0
 26  6  1  1  0  0  0
 27 16  1  0  0  0  0
M  END
$$$$
