@<TRIPOS>MOLECULE
/home/chenty/abacust_mem/src/inference/npys/all_lig/4LDE/lig_A_P0G_1401_1.pdb
 27 29 0 0 0
SMALL
GASTEIGER

@<TRIPOS>ATOM
      1  CAA       -6.3930  -10.9150  -54.3170 C.3   1401  P0G1401     0.0307
      2  CAB       -4.1990  -10.9320  -51.5830 C.3   1401  P0G1401     0.0178
      3  CAC       -3.6790  -13.2360  -52.3870 C.3   1401  P0G1401     0.0178
      4  OAD        3.3130  -13.7080  -50.6370 O.2   1401  P0G1401    -0.2689
      5  OAE        2.3100  -12.0060  -46.3940 O.3   1401  P0G1401    -0.2851
      6  OAF       -3.6560  -13.7040  -47.5430 O.3   1401  P0G1401    -0.2166
      7  CAG       -6.8570  -14.4100  -55.6420 C.ar  1401  P0G1401    -0.0003
      8  CAH       -6.7100  -15.1850  -54.4970 C.ar  1401  P0G1401    -0.0003
      9  CAI       -6.7550  -13.0270  -55.5730 C.ar  1401  P0G1401    -0.0046
     10  CAJ       -6.4670  -14.5730  -53.2810 C.ar  1401  P0G1401    -0.0045
     11  CAK       -0.0430  -12.3510  -46.1340 C.ar  1401  P0G1401     0.0434
     12  CAL       -1.2710  -12.7100  -46.6820 C.ar  1401  P0G1401     0.0046
     13  CAM        0.9630  -14.1150  -50.6270 C.3   1401  P0G1401     0.2915
     14  CAN       -3.2180  -12.3390  -49.4480 C.3   1401  P0G1401     0.1261
     15  CAO       -6.0810  -12.5560  -51.8590 C.3   1401  P0G1401     0.0421
     16  NAP       -4.4080  -12.8010  -50.1310 N.3   1401  P0G1401    -0.2174
     17  NAQ        2.1330  -12.7220  -49.0170 N.am  1401  P0G1401    -0.1697
     18  OAR       -0.1890  -13.4310  -50.1220 O.3   1401  P0G1401    -0.4644
     19  CAS        2.2400  -13.4960  -50.0930 C.2   1401  P0G1401     0.2903
     20  CAT       -6.5020  -12.4160  -54.3540 C.ar  1401  P0G1401    -0.0258
     21  CAU        1.1030  -12.3570  -46.9210 C.ar  1401  P0G1401     0.2138
     22  CAV       -6.3450  -13.1880  -53.2080 C.ar  1401  P0G1401    -0.0248
     23  CAW       -1.3630  -13.0760  -48.0200 C.ar  1401  P0G1401     0.0446
     24  CAX        1.0190  -12.7270  -48.2480 C.ar  1401  P0G1401     0.1458
     25  CAY       -0.2010  -13.0860  -48.7970 C.ar  1401  P0G1401     0.1560
     26  CAZ       -2.6870  -13.4640  -48.5770 C.3   1401  P0G1401     0.1945
     27  CBA       -4.6010  -12.4000  -51.5080 C.3   1401  P0G1401     0.0636
@<TRIPOS>BOND
     1     7     9   ar
     2     7     8   ar
     3     9    20   ar
     4     8    10   ar
     5    20     1    1
     6    20    22   ar
     7    10    22   ar
     8    22    15    1
     9     3    27    1
    10    15    27    1
    11     2    27    1
    12    27    16    1
    13     4    19    2
    14    13    18    1
    15    13    19    1
    16    16    14    1
    17    18    25    1
    18    19    17   am
    19    14    26    1
    20    17    24    1
    21    25    24   ar
    22    25    23   ar
    23    26    23    1
    24    26     6    1
    25    24    21   ar
    26    23    12   ar
    27    21     5    1
    28    21    11   ar
    29    12    11   ar
