/home/chenty/abacust_mem/src/inference/npys/all_lig/9IVK/lig_A_KY6_301_1.pdb
 OpenBabel03162621133D

 26 28  0  0  0  0  0  0  0  0999 V2000
  111.0000  113.6920   75.6300 C   0  0  0  0  0  0  0  0  0  0  0  0
  111.3180  112.6850   76.5000 C   0  0  0  0  0  0  0  0  0  0  0  0
  110.7910  112.6250   77.8650 C   0  0  0  0  0  0  0  0  0  0  0  0
  110.8710  111.6750   78.8370 C   0  0  0  0  0  0  0  0  0  0  0  0
  111.6000  110.4760   78.5230 C   0  0  0  0  0  0  0  0  0  0  0  0
  110.2780  111.7360   80.2170 C   0  0  0  0  0  0  0  0  0  0  0  0
  110.4230  110.6870   81.1370 C   0  0  0  0  0  0  0  0  0  0  0  0
  109.8710  110.7490   82.4130 C   0  0  0  0  0  0  0  0  0  0  0  0
  109.1610  111.8740   82.8030 C   0  0  0  0  0  0  0  0  0  0  0  0
  108.5870  111.9470   84.1270 C   0  0  0  0  0  0  0  0  0  0  0  0
  114.7940  111.6230   70.7870 C   0  0  0  0  0  0  0  0  0  0  0  0
  113.2580  113.0840   69.4460 C   0  0  0  0  0  0  0  0  0  0  0  0
  114.0880  114.3420   69.1100 C   0  0  0  0  0  0  0  0  0  0  0  0
  112.9440  112.8570   71.9430 C   0  0  0  0  0  0  0  0  0  0  0  0
  112.1330  114.0220   72.0230 C   0  0  0  0  0  0  0  0  0  0  0  0
  111.4600  114.3490   73.1910 C   0  0  0  0  0  0  0  0  0  0  0  0
  111.6000  113.5260   74.3240 C   0  0  0  0  0  0  0  0  0  0  0  0
  109.0060  112.9310   81.9210 C   0  0  0  0  0  0  0  0  0  0  0  0
  109.5600  112.8570   80.6500 C   0  0  0  0  0  0  0  0  0  0  0  0
  112.4040  112.3840   74.2560 C   0  0  0  0  0  0  0  0  0  0  0  0
  113.0780  112.0310   73.0940 C   0  0  0  0  0  0  0  0  0  0  0  0
  113.6210  112.5320   70.7630 N   0  0  0  0  0  0  0  0  0  0  0  0
  112.1900  109.5230   78.2780 N   0  0  0  0  0  0  0  0  0  0  0  0
  108.1440  112.0430   85.1780 N   0  0  0  0  0  0  0  0  0  0  0  0
  113.8380  114.8380   67.7830 O   0  0  0  0  0  0  0  0  0  0  0  0
  112.4180  111.5370   75.7670 S   0  0  0  0  0  0  0  0  0  0  0  0
  1  2  2  0  0  0  0
  2  3  1  0  0  0  0
  3  4  2  0  0  0  0
  4  6  1  0  0  0  0
  5  4  1  0  0  0  0
  6 19  2  0  0  0  0
  6  7  1  0  0  0  0
  7  8  2  0  0  0  0
  8  9  1  0  0  0  0
  9 10  1  0  0  0  0
 10 24  3  0  0  0  0
 12 22  1  0  0  0  0
 13 12  1  0  0  0  0
 14 15  2  0  0  0  0
 14 21  1  0  0  0  0
 15 16  1  0  0  0  0
 16 17  2  0  0  0  0
 17  1  1  0  0  0  0
 18  9  2  0  0  0  0
 19 18  1  0  0  0  0
 20 17  1  0  0  0  0
 20 26  1  0  0  0  0
 21 20  2  0  0  0  0
 22 11  1  0  0  0  0
 22 14  1  0  0  0  0
 23  5  3  0  0  0  0
 25 13  1  0  0  0  0
 26  2  1  0  0  0  0
M  END
$$$$
