/home/chenty/abacust_mem/src/inference/npys/all_lig/3SN6/lig_R_P0G_1601_1.pdb
 OpenBabel03192610383D

 27 29  0  0  1  0  0  0  0  0999 V2000
   23.9740    7.0940  -14.7090 C   0  0  0  0  0  0  0  0  0  0  0  0
   22.2670    5.6660  -12.3670 C   0  0  0  0  0  0  0  0  0  0  0  0
   20.4550    7.3650  -12.2040 C   0  0  0  0  0  0  0  0  0  0  0  0
   15.4730    2.1740  -10.5770 O   0  0  0  0  0  0  0  0  0  0  0  0
   17.8500    1.5120   -6.6000 O   0  0  0  0  0  0  0  0  0  0  0  0
   20.2190    7.0960   -8.0220 O   0  0  0  0  0  0  0  0  0  0  0  0
   21.9300   10.0400  -15.9090 C   0  0  0  0  0  0  0  0  0  0  0  0
   21.4030   10.5230  -14.7180 C   0  0  0  0  0  0  0  0  0  0  0  0
   22.7620    8.9280  -15.8960 C   0  0  0  0  0  0  0  0  0  0  0  0
   21.7130    9.8930  -13.5190 C   0  0  0  0  0  0  0  0  0  0  0  0
   19.2370    3.4470   -6.4570 C   0  0  0  0  0  0  0  0  0  0  0  0
   19.7840    4.5780   -7.0530 C   0  0  0  0  0  0  0  0  0  0  0  0
   16.9780    3.9920  -10.8130 C   0  0  0  0  0  0  0  0  0  0  0  0
   21.4120    5.7570   -9.6190 C   0  0  0  0  0  0  0  0  0  0  0  0
   22.8700    8.1030  -12.1880 C   0  0  0  0  0  0  0  0  0  0  0  0
   21.9400    6.9080  -10.3300 N   0  0  0  0  0  0  0  0  0  0  0  0
   17.2690    2.1530   -9.2380 N   0  0  0  0  0  0  0  0  0  0  0  0
   18.3010    4.3030  -10.3830 O   0  0  0  0  0  0  0  0  0  0  0  0
   16.5110    2.6910  -10.1950 C   0  0  0  0  0  0  0  0  0  0  0  0
   23.0690    8.2970  -14.6960 C   0  0  0  0  0  0  0  0  0  0  0  0
   18.3860    2.6210   -7.1820 C   0  0  0  0  0  0  0  0  0  0  0  0
   22.5390    8.7730  -13.5060 C   0  0  0  0  0  0  0  0  0  0  0  0
   19.4830    4.8770   -8.3760 C   0  0  0  0  0  0  0  0  0  0  0  0
   18.0860    2.9320   -8.4960 C   0  0  0  0  0  0  0  0  0  0  0  0
   18.6280    4.0530   -9.0820 C   0  0  0  0  0  0  0  0  0  0  0  0
   20.0500    6.0820   -9.0180 C   0  0  1  0  0  0  0  0  0  0  0  0
   21.8760    7.0150  -11.7780 C   0  0  0  0  0  0  0  0  0  0  0  0
  1 20  1  0  0  0  0
  2 27  1  0  0  0  0
  3 27  1  0  0  0  0
  4 19  2  0  0  0  0
  7  9  2  0  0  0  0
  7  8  1  0  0  0  0
  8 10  2  0  0  0  0
  9 20  1  0  0  0  0
 10 22  1  0  0  0  0
 12 11  1  0  0  0  0
 13 18  1  0  0  0  0
 13 19  1  0  0  0  0
 14 26  1  0  0  0  0
 15 27  1  0  0  0  0
 16 14  1  0  0  0  0
 17 24  1  0  0  0  0
 18 25  1  0  0  0  0
 19 17  1  0  0  0  0
 20 22  2  0  0  0  0
 21  5  1  0  0  0  0
 21 11  2  0  0  0  0
 22 15  1  0  0  0  0
 23 12  2  0  0  0  0
 24 21  1  0  0  0  0
 25 24  2  0  0  0  0
 25 23  1  0  0  0  0
 26 23  1  0  0  0  0
 26  6  1  1  0  0  0
 27 16  1  0  0  0  0
M  END
$$$$
