/home/chenty/abacust_mem/src/inference/npys/all_lig/7BZ2/lig_R_H98_401_1.pdb
 OpenBabel03192610383D

 25 26  0  0  1  0  0  0  0  0999 V2000
   82.3390  100.9440  130.3310 C   0  0  0  0  0  0  0  0  0  0  0  0
   83.8140  100.6280  130.5400 C   0  0  2  0  0  0  0  0  0  0  0  0
   84.5610  101.9180  130.8800 C   0  0  0  0  0  0  0  0  0  0  0  0
   84.6520  102.0430  132.3520 C   0  0  0  0  0  0  0  0  0  0  0  0
   84.6430  100.9130  133.1620 C   0  0  0  0  0  0  0  0  0  0  0  0
   84.7260  101.0260  134.5390 C   0  0  0  0  0  0  0  0  0  0  0  0
   84.8200  102.3070  135.0970 C   0  0  0  0  0  0  0  0  0  0  0  0
   84.8310  103.4410  134.2950 C   0  0  0  0  0  0  0  0  0  0  0  0
   84.7470  103.3030  132.9240 C   0  0  0  0  0  0  0  0  0  0  0  0
   84.9010  102.3590  136.4600 O   0  0  0  0  0  0  0  0  0  0  0  0
   84.0280  101.4790  137.1300 C   0  0  0  0  0  0  0  0  0  0  0  0
   84.3240  100.0590  129.2840 N   0  0  0  0  0  0  0  0  0  0  0  0
   83.5940   98.8490  128.9240 C   0  0  0  0  0  0  0  0  0  0  0  0
   84.3340   98.1470  127.7740 C   0  0  1  0  0  0  0  0  0  0  0  0
   83.3810   97.1520  127.1900 C   0  0  0  0  0  0  0  0  0  0  0  0
   82.3520   96.6880  127.9660 C   0  0  0  0  0  0  0  0  0  0  0  0
   81.4620   95.7650  127.4390 C   0  0  0  0  0  0  0  0  0  0  0  0
   81.6260   95.3160  126.1270 C   0  0  0  0  0  0  0  0  0  0  0  0
   82.6710   95.7890  125.3490 C   0  0  0  0  0  0  0  0  0  0  0  0
   83.5480   96.7080  125.8880 C   0  0  0  0  0  0  0  0  0  0  0  0
   80.7580   94.4120  125.6080 O   0  0  0  0  0  0  0  0  0  0  0  0
   80.4100   95.2860  128.2200 N   0  0  0  0  0  0  0  0  0  0  0  0
   80.3200   95.6120  129.5690 C   0  0  0  0  0  0  0  0  0  0  0  0
   79.4090   95.2050  130.2800 O   0  0  0  0  0  0  0  0  0  0  0  0
   84.7850   99.0360  126.8110 O   0  0  0  0  0  0  0  0  0  0  0  0
  2  1  1  6  0  0  0
  2  3  1  0  0  0  0
  3  4  1  0  0  0  0
  4  9  2  0  0  0  0
  4  5  1  0  0  0  0
  5  6  2  0  0  0  0
  6  7  1  0  0  0  0
  7 10  1  0  0  0  0
  8  7  2  0  0  0  0
  9  8  1  0  0  0  0
 10 11  1  0  0  0  0
 12  2  1  0  0  0  0
 13 12  1  0  0  0  0
 14 25  1  6  0  0  0
 14 13  1  0  0  0  0
 15 14  1  0  0  0  0
 15 16  1  0  0  0  0
 17 16  2  0  0  0  0
 17 22  1  0  0  0  0
 18 17  1  0  0  0  0
 19 20  1  0  0  0  0
 19 18  2  0  0  0  0
 20 15  2  0  0  0  0
 21 18  1  0  0  0  0
 22 23  1  0  0  0  0
 23 24  2  0  0  0  0
M  END
$$$$
