@<TRIPOS>MOLECULE
/home/chenty/abacust_mem/src/inference/npys/all_lig/7BZ2/lig_R_H98_401_1.pdb
 25 26 0 0 0
SMALL
GASTEIGER

@<TRIPOS>ATOM
      1  C1        82.3390  100.9440  130.3310 C.3   401  H98401      0.0192
      2  C2        83.8140  100.6280  130.5400 C.3   401  H98401      0.0773
      3  C3        84.5610  101.9180  130.8800 C.3   401  H98401      0.0437
      4  C4        84.6520  102.0430  132.3520 C.ar  401  H98401     -0.0206
      5  C5        84.6430  100.9130  133.1620 C.ar  401  H98401     -0.0011
      6  C6        84.7260  101.0260  134.5390 C.ar  401  H98401      0.0366
      7  C7        84.8200  102.3070  135.0970 C.ar  401  H98401      0.1387
      8  C8        84.8310  103.4410  134.2950 C.ar  401  H98401      0.0366
      9  C9        84.7470  103.3030  132.9240 C.ar  401  H98401     -0.0011
     10  O1        84.9010  102.3590  136.4600 O.3   401  H98401     -0.4714
     11  C10       84.0280  101.4790  137.1300 C.3   401  H98401      0.2525
     12  N1        84.3240  100.0590  129.2840 N.3   401  H98401     -0.2161
     13  C11       83.5940   98.8490  128.9240 C.3   401  H98401      0.1260
     14  C12       84.3340   98.1470  127.7740 C.3   401  H98401      0.1916
     15  C13       83.3810   97.1520  127.1900 C.ar  401  H98401      0.0106
     16  C14       82.3520   96.6880  127.9660 C.ar  401  H98401      0.0181
     17  C15       81.4620   95.7650  127.4390 C.ar  401  H98401      0.1124
     18  C16       81.6260   95.3160  126.1270 C.ar  401  H98401      0.2108
     19  C17       82.6710   95.7890  125.3490 C.ar  401  H98401      0.0432
     20  C18       83.5480   96.7080  125.8880 C.ar  401  H98401      0.0016
     21  O2        80.7580   94.4120  125.6080 O.3   401  H98401     -0.2852
     22  N2        80.4100   95.2860  128.2200 N.am  401  H98401     -0.1683
     23  C19       80.3200   95.6120  129.5690 C.2   401  H98401      0.3247
     24  O3        79.4090   95.2050  130.2800 O.2   401  H98401     -0.2629
     25  O4        84.7850   99.0360  126.8110 O.3   401  H98401     -0.2167
@<TRIPOS>BOND
     1    19    20   ar
     2    19    18   ar
     3    21    18    1
     4    20    15   ar
     5    18    17   ar
     6    25    14    1
     7    15    14    1
     8    15    16   ar
     9    17    16   ar
    10    17    22    1
    11    14    13    1
    12    22    23   am
    13    13    12    1
    14    12     2    1
    15    23    24    2
    16     1     2    1
    17     2     3    1
    18     3     4    1
    19     4     9   ar
    20     4     5   ar
    21     9     8   ar
    22     5     6   ar
    23     8     7   ar
    24     6     7   ar
    25     7    10    1
    26    10    11    1
