@<TRIPOS>MOLECULE
/home/chenty/abacust_mem/src/inference/npys/all_lig/8W6E_chainB/lig_B_KY6_201_1.pdb
 43 45 0 0 0
SMALL
GASTEIGER

@<TRIPOS>ATOM
      1  C10       -8.4990    3.0890   -1.7040 C.ar  201  KY6201     -0.0397
      2  C11       -7.5190    3.4350   -0.8140 C.ar  201  KY6201      0.0146
      3  C12       -6.5220    4.4630   -1.0950 C.2   201  KY6201     -0.0300
      4  C13       -5.6950    5.1670   -0.2750 C.2   201  KY6201      0.0599
      5  C14       -5.7550    4.8650    1.1280 C.1   201  KY6201      0.0998
      6  C16       -4.7030    6.2210   -0.6720 C.ar  201  KY6201     -0.0076
      7  C17       -3.9230    6.9010    0.2730 C.ar  201  KY6201     -0.0521
      8  C18       -3.0060    7.8780   -0.0990 C.ar  201  KY6201     -0.0438
      9  C19       -2.8250    8.1780   -1.4370 C.ar  201  KY6201      0.0518
     10  C20       -1.8760    9.1910   -1.8280 C.1   201  KY6201      0.0992
     11  C01      -11.3080   -1.2420    2.2250 C.3   201  KY6201      0.0007
     12  C03      -12.8790   -1.4770    0.2860 C.3   201  KY6201      0.0351
     13  C04      -12.5130   -2.7610   -0.4830 C.3   201  KY6201      0.0598
     14  C06      -10.9320    0.1480    0.1670 C.ar  201  KY6201      0.0306
     15  C07      -11.2770    0.5700   -1.1470 C.ar  201  KY6201     -0.0400
     16  C08      -10.5320    1.5290   -1.8180 C.ar  201  KY6201     -0.0518
     17  C09       -9.4060    2.0950   -1.1900 C.ar  201  KY6201     -0.0101
     18  C22       -3.5610    7.5050   -2.4010 C.ar  201  KY6201     -0.0438
     19  C23       -4.4760    6.5370   -2.0180 C.ar  201  KY6201     -0.0521
     20  C25       -9.0590    1.6860    0.1000 C.ar  201  KY6201      0.0216
     21  C26       -9.7920    0.7330    0.7890 C.ar  201  KY6201     -0.0263
     22  N02      -11.6900   -0.8120    0.8540 N.pl3 201  KY6201     -0.3307
     23  N15       -5.7820    4.6080    2.2400 N.1   201  KY6201     -0.1908
     24  N21       -1.1540   10.0300   -2.1180 N.1   201  KY6201     -0.1909
     25  O05      -13.6590   -3.5530   -0.8300 O.3   201  KY6201     -0.3935
     26  S24       -7.6440    2.5080    0.6620 S.2   201  KY6201     -0.0887
     27 H101       -8.5760    3.4670   -2.5700 H     201  KY6201      0.0635
     28 H121       -6.4500    4.6600   -2.0120 H     201  KY6201      0.0642
     29 H171       -4.0410    6.7230    1.1950 H     201  KY6201      0.0624
     30 H181       -2.5010    8.3430    0.5630 H     201  KY6201      0.0631
     31 H013      -11.3690   -0.4860    2.8320 H     201  KY6201      0.0428
     32 H012      -11.8950   -1.9480    2.5510 H     201  KY6201      0.0428
     33 H011      -10.3980   -1.5820    2.2230 H     201  KY6201      0.0428
     34 H032      -13.5010   -1.7020    1.0130 H     201  KY6201      0.0486
     35 H031      -13.3740   -0.8610   -0.2940 H     201  KY6201      0.0486
     36 H041      -11.9160   -3.3160    0.0680 H     201  KY6201      0.0573
     37 H042      -12.0120   -2.5380   -1.3020 H     201  KY6201      0.0573
     38 H071      -12.0290    0.1960   -1.5740 H     201  KY6201      0.0636
     39 H081      -10.7630    1.8070   -2.7010 H     201  KY6201      0.0624
     40 H221       -3.4370    7.7120   -3.3240 H     201  KY6201      0.0631
     41 H231       -4.9770    6.0900   -2.6860 H     201  KY6201      0.0624
     42 H261       -9.5160    0.4920    1.6540 H     201  KY6201      0.0647
     43 H051      -14.3980   -3.1310   -0.9460 H     201  KY6201      0.2095
@<TRIPOS>BOND
     1    40    18    1
     2    39    16    1
     3    41    19    1
     4    27     1    1
     5    18    19   ar
     6    18     9   ar
     7    24    10    3
     8    19     6   ar
     9    28     3    1
    10    10     9    1
    11    16    17   ar
    12    16    15   ar
    13     1    17   ar
    14     1     2   ar
    15    38    15    1
    16     9     8   ar
    17    37    13    1
    18    17    20   ar
    19    15    14   ar
    20     3     2    1
    21     3     4    2
    22    43    25    1
    23    25    13    1
    24     2    26   ar
    25     6     4    1
    26     6     7   ar
    27    13    36    1
    28    13    12    1
    29    35    12    1
    30     4     5    1
    31     8     7   ar
    32     8    30    1
    33    20    26   ar
    34    20    21   ar
    35    14    21   ar
    36    14    22    1
    37     7    29    1
    38    12    22    1
    39    12    34    1
    40    21    42    1
    41    22    11    1
    42     5    23    3
    43    33    11    1
    44    11    32    1
    45    11    31    1
