/home/chenty/abacust_mem/src/inference/npys/all_lig/8W6E/lig_B_KY6_201_2.pdb
 OpenBabel03162621433D

 43 45  0  0  0  0  0  0  0  0999 V2000
   -8.4990    3.0890   -1.7040 C   0  0  0  0  0  0  0  0  0  0  0  0
   -7.5190    3.4350   -0.8140 C   0  0  0  0  0  0  0  0  0  0  0  0
   -6.5220    4.4630   -1.0950 C   0  0  0  0  0  0  0  0  0  0  0  0
   -5.6950    5.1670   -0.2750 C   0  0  0  0  0  0  0  0  0  0  0  0
   -5.7550    4.8650    1.1280 C   0  0  0  0  0  0  0  0  0  0  0  0
   -4.7030    6.2210   -0.6720 C   0  0  0  0  0  0  0  0  0  0  0  0
   -3.9230    6.9010    0.2730 C   0  0  0  0  0  0  0  0  0  0  0  0
   -3.0060    7.8780   -0.0990 C   0  0  0  0  0  0  0  0  0  0  0  0
   -2.8250    8.1780   -1.4370 C   0  0  0  0  0  0  0  0  0  0  0  0
   -1.8760    9.1910   -1.8280 C   0  0  0  0  0  0  0  0  0  0  0  0
  -11.3080   -1.2420    2.2250 C   0  0  0  0  0  0  0  0  0  0  0  0
  -12.8790   -1.4770    0.2860 C   0  0  0  0  0  0  0  0  0  0  0  0
  -12.5130   -2.7610   -0.4830 C   0  0  0  0  0  0  0  0  0  0  0  0
  -10.9320    0.1480    0.1670 C   0  0  0  0  0  0  0  0  0  0  0  0
  -11.2770    0.5700   -1.1470 C   0  0  0  0  0  0  0  0  0  0  0  0
  -10.5320    1.5290   -1.8180 C   0  0  0  0  0  0  0  0  0  0  0  0
   -9.4060    2.0950   -1.1900 C   0  0  0  0  0  0  0  0  0  0  0  0
   -3.5610    7.5050   -2.4010 C   0  0  0  0  0  0  0  0  0  0  0  0
   -4.4760    6.5370   -2.0180 C   0  0  0  0  0  0  0  0  0  0  0  0
   -9.0590    1.6860    0.1000 C   0  0  0  0  0  0  0  0  0  0  0  0
   -9.7920    0.7330    0.7890 C   0  0  0  0  0  0  0  0  0  0  0  0
  -11.6900   -0.8120    0.8540 N   0  0  0  0  0  0  0  0  0  0  0  0
   -5.7820    4.6080    2.2400 N   0  0  0  0  0  0  0  0  0  0  0  0
   -1.1540   10.0300   -2.1180 N   0  0  0  0  0  0  0  0  0  0  0  0
  -13.6590   -3.5530   -0.8300 O   0  0  0  0  0  0  0  0  0  0  0  0
   -7.6440    2.5080    0.6620 S   0  0  0  0  0  0  0  0  0  0  0  0
   -8.5760    3.4670   -2.5700 H   0  0  0  0  0  0  0  0  0  0  0  0
   -6.4500    4.6600   -2.0120 H   0  0  0  0  0  0  0  0  0  0  0  0
   -4.0410    6.7230    1.1950 H   0  0  0  0  0  0  0  0  0  0  0  0
   -2.5010    8.3430    0.5630 H   0  0  0  0  0  0  0  0  0  0  0  0
  -11.3690   -0.4860    2.8320 H   0  0  0  0  0  0  0  0  0  0  0  0
  -11.8950   -1.9480    2.5510 H   0  0  0  0  0  0  0  0  0  0  0  0
  -10.3980   -1.5820    2.2230 H   0  0  0  0  0  0  0  0  0  0  0  0
  -13.5010   -1.7020    1.0130 H   0  0  0  0  0  0  0  0  0  0  0  0
  -13.3740   -0.8610   -0.2940 H   0  0  0  0  0  0  0  0  0  0  0  0
  -11.9160   -3.3160    0.0680 H   0  0  0  0  0  0  0  0  0  0  0  0
  -12.0120   -2.5380   -1.3020 H   0  0  0  0  0  0  0  0  0  0  0  0
  -12.0290    0.1960   -1.5740 H   0  0  0  0  0  0  0  0  0  0  0  0
  -10.7630    1.8070   -2.7010 H   0  0  0  0  0  0  0  0  0  0  0  0
   -3.4370    7.7120   -3.3240 H   0  0  0  0  0  0  0  0  0  0  0  0
   -4.9770    6.0900   -2.6860 H   0  0  0  0  0  0  0  0  0  0  0  0
   -9.5160    0.4920    1.6540 H   0  0  0  0  0  0  0  0  0  0  0  0
  -14.3980   -3.1310   -0.9460 H   0  0  0  0  0  0  0  0  0  0  0  0
  1 17  1  0  0  0  0
  1  2  2  0  0  0  0
  2 26  1  0  0  0  0
  3  2  1  0  0  0  0
  3  4  2  0  0  0  0
  4  5  1  0  0  0  0
  5 23  3  0  0  0  0
  6  4  1  0  0  0  0
  6  7  1  0  0  0  0
  7 29  1  0  0  0  0
  8  7  2  0  0  0  0
  8 30  1  0  0  0  0
  9  8  1  0  0  0  0
 10  9  1  0  0  0  0
 11 32  1  0  0  0  0
 11 31  1  0  0  0  0
 12 22  1  0  0  0  0
 12 34  1  0  0  0  0
 13 36  1  0  0  0  0
 13 12  1  0  0  0  0
 14 21  1  0  0  0  0
 14 22  1  0  0  0  0
 15 14  2  0  0  0  0
 16 17  2  0  0  0  0
 16 15  1  0  0  0  0
 17 20  1  0  0  0  0
 18 19  1  0  0  0  0
 18  9  2  0  0  0  0
 19  6  2  0  0  0  0
 20 26  1  0  0  0  0
 20 21  2  0  0  0  0
 21 42  1  0  0  0  0
 22 11  1  0  0  0  0
 24 10  3  0  0  0  0
 25 13  1  0  0  0  0
 27  1  1  0  0  0  0
 28  3  1  0  0  0  0
 33 11  1  0  0  0  0
 35 12  1  0  0  0  0
 37 13  1  0  0  0  0
 38 15  1  0  0  0  0
 39 16  1  0  0  0  0
 40 18  1  0  0  0  0
 41 19  1  0  0  0  0
 43 25  1  0  0  0  0
M  END
$$$$
