@<TRIPOS>MOLECULE
/home/chenty/abacust_mem/src/inference/npys/all_lig/8W6E/lig_A_KY6_201_1.pdb
 43 45 0 0 0
SMALL
GASTEIGER

@<TRIPOS>ATOM
      1  C10        0.8810    6.5360   24.9020 C.ar  201  KY6201     -0.0397
      2  C11       -0.2650    6.9470   24.2820 C.ar  201  KY6201      0.0146
      3  C12       -1.0930    8.0170   24.8110 C.2   201  KY6201     -0.0300
      4  C13       -2.1840    8.6560   24.3020 C.2   201  KY6201      0.0599
      5  C14       -2.6640    8.2340   23.0160 C.1   201  KY6201      0.0998
      6  C16       -2.9670    9.7510   24.9640 C.ar  201  KY6201     -0.0076
      7  C17       -4.0370   10.3870   24.3250 C.ar  201  KY6201     -0.0521
      8  C18       -4.7540   11.4020   24.9440 C.ar  201  KY6201     -0.0438
      9  C19       -4.4580   11.7600   26.2500 C.ar  201  KY6201      0.0518
     10  C20       -5.2010   12.8140   26.8970 C.1   201  KY6201      0.0992
     11  C01        2.5730    2.3470   20.2460 C.3   201  KY6201      0.0007
     12  C03        4.5700    2.0580   21.7490 C.3   201  KY6201      0.0351
     13  C04        4.3940    0.8240   22.6520 C.3   201  KY6201      0.0598
     14  C06        2.7340    3.6790   22.3730 C.ar  201  KY6201      0.0306
     15  C07        3.4040    4.0510   23.5700 C.ar  201  KY6201     -0.0400
     16  C08        2.8550    4.9810   24.4460 C.ar  201  KY6201     -0.0518
     17  C09        1.6170    5.5670   24.1360 C.ar  201  KY6201     -0.0101
     18  C22       -3.4390   11.1160   26.9250 C.ar  201  KY6201     -0.0438
     19  C23       -2.7220   10.1140   26.2930 C.ar  201  KY6201     -0.0521
     20  C25        0.9540    5.2070   22.9620 C.ar  201  KY6201      0.0216
     21  C26        1.4840    4.2860   22.0730 C.ar  201  KY6201     -0.0263
     22  N02        3.2910    2.7430   21.4910 N.pl3 201  KY6201     -0.3307
     23  N15       -3.0650    7.8770   22.0050 N.1   201  KY6201     -0.1908
     24  N21       -5.7610   13.6830   27.3720 N.1   201  KY6201     -0.1909
     25  O05        5.6050    0.0630   22.7960 O.3   201  KY6201     -0.3935
     26  S24       -0.5450    6.0570   22.8050 S.2   201  KY6201     -0.0887
     27 H101        1.1600    6.8450   25.7530 H     201  KY6201      0.0635
     28 H121       -0.8020    8.3200   25.6530 H     201  KY6201      0.0642
     29 H171       -4.2380   10.1780   23.4250 H     201  KY6201      0.0624
     30 H181       -5.4560   11.8510   24.4800 H     201  KY6201      0.0631
     31 H013        2.4570    3.1240   19.6710 H     201  KY6201      0.0428
     32 H012        3.0720    1.6700   19.7500 H     201  KY6201      0.0428
     33 H011        1.7050    1.9790   20.4740 H     201  KY6201      0.0428
     34 H032        4.9720    1.7760   20.8930 H     201  KY6201      0.0486
     35 H031        5.2220    2.6780   22.1430 H     201  KY6201      0.0486
     36 H041        3.6890    0.2400   22.2890 H     201  KY6201      0.0573
     37 H042        4.0980    1.1040   23.5450 H     201  KY6201      0.0573
     38 H071        4.2340    3.6580   23.7850 H     201  KY6201      0.0636
     39 H081        3.3030    5.2240   25.2540 H     201  KY6201      0.0624
     40 H221       -3.2330   11.3610   27.8240 H     201  KY6201      0.0631
     41 H231       -2.0200    9.6850   26.7660 H     201  KY6201      0.0624
     42 H261        0.9980    4.0760   21.2960 H     201  KY6201      0.0647
     43 H051        6.1000   -0.0160   22.0980 H     201  KY6201      0.2095
@<TRIPOS>BOND
     1    31    11    1
     2    32    11    1
     3    11    33    1
     4    11    22    1
     5    34    12    1
     6    42    21    1
     7    22    12    1
     8    22    14    1
     9    12    35    1
    10    12    13    1
    11    23     5    3
    12    21    14   ar
    13    21    20   ar
    14    43    25    1
    15    36    13    1
    16    14    15   ar
    17    13    25    1
    18    13    37    1
    19    26    20   ar
    20    26     2   ar
    21    20    17   ar
    22     5     4    1
    23    29     7    1
    24    15    38    1
    25    15    16   ar
    26    17    16   ar
    27    17     1   ar
    28     2     3    1
    29     2     1   ar
    30     4     3    2
    31     4     6    1
    32     7     8   ar
    33     7     6   ar
    34    16    39    1
    35    30     8    1
    36     3    28    1
    37     1    27    1
    38     8     9   ar
    39     6    19   ar
    40     9    10    1
    41     9    18   ar
    42    19    41    1
    43    19    18   ar
    44    10    24    3
    45    18    40    1
