/home/chenty/abacust_mem/src/inference/npys/all_lig/8W6E/lig_A_KY6_201_1.pdb
 OpenBabel03162621433D

 43 45  0  0  0  0  0  0  0  0999 V2000
    0.8810    6.5360   24.9020 C   0  0  0  0  0  0  0  0  0  0  0  0
   -0.2650    6.9470   24.2820 C   0  0  0  0  0  0  0  0  0  0  0  0
   -1.0930    8.0170   24.8110 C   0  0  0  0  0  0  0  0  0  0  0  0
   -2.1840    8.6560   24.3020 C   0  0  0  0  0  0  0  0  0  0  0  0
   -2.6640    8.2340   23.0160 C   0  0  0  0  0  0  0  0  0  0  0  0
   -2.9670    9.7510   24.9640 C   0  0  0  0  0  0  0  0  0  0  0  0
   -4.0370   10.3870   24.3250 C   0  0  0  0  0  0  0  0  0  0  0  0
   -4.7540   11.4020   24.9440 C   0  0  0  0  0  0  0  0  0  0  0  0
   -4.4580   11.7600   26.2500 C   0  0  0  0  0  0  0  0  0  0  0  0
   -5.2010   12.8140   26.8970 C   0  0  0  0  0  0  0  0  0  0  0  0
    2.5730    2.3470   20.2460 C   0  0  0  0  0  0  0  0  0  0  0  0
    4.5700    2.0580   21.7490 C   0  0  0  0  0  0  0  0  0  0  0  0
    4.3940    0.8240   22.6520 C   0  0  0  0  0  0  0  0  0  0  0  0
    2.7340    3.6790   22.3730 C   0  0  0  0  0  0  0  0  0  0  0  0
    3.4040    4.0510   23.5700 C   0  0  0  0  0  0  0  0  0  0  0  0
    2.8550    4.9810   24.4460 C   0  0  0  0  0  0  0  0  0  0  0  0
    1.6170    5.5670   24.1360 C   0  0  0  0  0  0  0  0  0  0  0  0
   -3.4390   11.1160   26.9250 C   0  0  0  0  0  0  0  0  0  0  0  0
   -2.7220   10.1140   26.2930 C   0  0  0  0  0  0  0  0  0  0  0  0
    0.9540    5.2070   22.9620 C   0  0  0  0  0  0  0  0  0  0  0  0
    1.4840    4.2860   22.0730 C   0  0  0  0  0  0  0  0  0  0  0  0
    3.2910    2.7430   21.4910 N   0  0  0  0  0  0  0  0  0  0  0  0
   -3.0650    7.8770   22.0050 N   0  0  0  0  0  0  0  0  0  0  0  0
   -5.7610   13.6830   27.3720 N   0  0  0  0  0  0  0  0  0  0  0  0
    5.6050    0.0630   22.7960 O   0  0  0  0  0  0  0  0  0  0  0  0
   -0.5450    6.0570   22.8050 S   0  0  0  0  0  0  0  0  0  0  0  0
    1.1600    6.8450   25.7530 H   0  0  0  0  0  0  0  0  0  0  0  0
   -0.8020    8.3200   25.6530 H   0  0  0  0  0  0  0  0  0  0  0  0
   -4.2380   10.1780   23.4250 H   0  0  0  0  0  0  0  0  0  0  0  0
   -5.4560   11.8510   24.4800 H   0  0  0  0  0  0  0  0  0  0  0  0
    2.4570    3.1240   19.6710 H   0  0  0  0  0  0  0  0  0  0  0  0
    3.0720    1.6700   19.7500 H   0  0  0  0  0  0  0  0  0  0  0  0
    1.7050    1.9790   20.4740 H   0  0  0  0  0  0  0  0  0  0  0  0
    4.9720    1.7760   20.8930 H   0  0  0  0  0  0  0  0  0  0  0  0
    5.2220    2.6780   22.1430 H   0  0  0  0  0  0  0  0  0  0  0  0
    3.6890    0.2400   22.2890 H   0  0  0  0  0  0  0  0  0  0  0  0
    4.0980    1.1040   23.5450 H   0  0  0  0  0  0  0  0  0  0  0  0
    4.2340    3.6580   23.7850 H   0  0  0  0  0  0  0  0  0  0  0  0
    3.3030    5.2240   25.2540 H   0  0  0  0  0  0  0  0  0  0  0  0
   -3.2330   11.3610   27.8240 H   0  0  0  0  0  0  0  0  0  0  0  0
   -2.0200    9.6850   26.7660 H   0  0  0  0  0  0  0  0  0  0  0  0
    0.9980    4.0760   21.2960 H   0  0  0  0  0  0  0  0  0  0  0  0
    6.1000   -0.0160   22.0980 H   0  0  0  0  0  0  0  0  0  0  0  0
  1 27  1  0  0  0  0
  2  3  1  0  0  0  0
  2  1  2  0  0  0  0
  3 28  1  0  0  0  0
  4  3  2  0  0  0  0
  4  6  1  0  0  0  0
  5  4  1  0  0  0  0
  6 19  1  0  0  0  0
  7  8  1  0  0  0  0
  7  6  2  0  0  0  0
  8  9  2  0  0  0  0
  9 10  1  0  0  0  0
  9 18  1  0  0  0  0
 10 24  3  0  0  0  0
 11 33  1  0  0  0  0
 11 22  1  0  0  0  0
 12 35  1  0  0  0  0
 12 13  1  0  0  0  0
 13 25  1  0  0  0  0
 13 37  1  0  0  0  0
 14 15  1  0  0  0  0
 15 38  1  0  0  0  0
 15 16  2  0  0  0  0
 16 39  1  0  0  0  0
 17 16  1  0  0  0  0
 17  1  1  0  0  0  0
 18 40  1  0  0  0  0
 19 41  1  0  0  0  0
 19 18  2  0  0  0  0
 20 17  2  0  0  0  0
 21 14  2  0  0  0  0
 21 20  1  0  0  0  0
 22 12  1  0  0  0  0
 22 14  1  0  0  0  0
 23  5  3  0  0  0  0
 26 20  1  0  0  0  0
 26  2  1  0  0  0  0
 29  7  1  0  0  0  0
 30  8  1  0  0  0  0
 31 11  1  0  0  0  0
 32 11  1  0  0  0  0
 34 12  1  0  0  0  0
 36 13  1  0  0  0  0
 42 21  1  0  0  0  0
 43 25  1  0  0  0  0
M  END
$$$$
