/home/chenty/abacust_mem/src/inference/npys/all_lig/7DHI/lig_R_68H_401_1.pdb
 OpenBabel03192610383D

 17 17  0  0  1  0  0  0  0  0999 V2000
   88.0540   86.4130  128.3080 O   0  0  0  0  0  0  0  0  0  0  0  0
   89.2300   86.9990  128.7690 C   0  0  0  0  0  0  0  0  0  0  0  0
   89.5620   88.1220  127.8540 C   0  0  0  0  0  0  0  0  0  0  0  0
   89.0920   88.1190  126.5390 C   0  0  0  0  0  0  0  0  0  0  0  0
   88.3290   87.0770  126.1010 O   0  0  0  0  0  0  0  0  0  0  0  0
   89.3760   89.1480  125.6490 C   0  0  0  0  0  0  0  0  0  0  0  0
   90.1500   90.2040  126.0950 C   0  0  0  0  0  0  0  0  0  0  0  0
   90.3310   89.1840  128.2840 C   0  0  0  0  0  0  0  0  0  0  0  0
   90.6140   90.2090  127.3990 C   0  0  0  0  0  0  0  0  0  0  0  0
   91.4480   91.3310  127.8940 C   0  0  1  0  0  0  0  0  0  0  0  0
   91.6310   92.2900  126.9160 O   0  0  0  0  0  0  0  0  0  0  0  0
   90.7320   91.9080  129.1120 C   0  0  0  0  0  0  0  0  0  0  0  0
   91.4600   93.1330  129.4910 N   0  0  0  0  0  0  0  0  0  0  0  0
   91.1620   93.5980  130.8680 C   0  0  0  0  0  0  0  0  0  0  0  0
   91.8940   94.8980  131.2050 C   0  0  0  0  0  0  0  0  0  0  0  0
   89.6640   93.8460  131.0300 C   0  0  0  0  0  0  0  0  0  0  0  0
   91.6060   92.5030  131.8440 C   0  0  0  0  0  0  0  0  0  0  0  0
  1  2  1  0  0  0  0
  3  8  1  0  0  0  0
  3  2  1  0  0  0  0
  4  3  2  0  0  0  0
  5  4  1  0  0  0  0
  6  7  2  0  0  0  0
  6  4  1  0  0  0  0
  7  9  1  0  0  0  0
  9 10  1  0  0  0  0
  9  8  2  0  0  0  0
 10 11  1  6  0  0  0
 10 12  1  0  0  0  0
 12 13  1  0  0  0  0
 13 14  1  0  0  0  0
 14 16  1  0  0  0  0
 14 15  1  0  0  0  0
 14 17  1  0  0  0  0
M  END
$$$$
